180

 Ti         6.1684808042        3.3928826312        0.7011672941
 Ti         7.4644004350        3.3866086479        4.2873584580
 Ti         8.8636072580        3.3859358485        7.8253580185
 Ti         0.0783392832        3.3781471058       11.3933972048
 Ti         1.0365998643        1.5006753063        0.7044498401
 Ti         2.3557750258        1.4982881723        4.2760010871
 Ti         3.7467045996        1.4987240166        7.8188717594
 Ti         5.1418568770        1.4898286918       11.3880617212
 Ti         3.8309272418        1.5052978766        1.5244865373
 Ti         5.2012016345        1.4994332331        5.0983672329
 Ti         6.6023028303        1.5016415828        8.6316202312
 Ti         7.9207478641        1.4935621231       12.2187372919
 Ti         8.9388334888        3.3953765785        1.5421494858
 Ti         0.0951088120        3.3881066861        5.1163448381
 Ti         1.4946219294        3.3853450262        8.6921289921
 Ti         2.8704085424        3.3848043440       12.3529460180
  O         4.2414719540        3.3904973181        1.5341605200
  O         5.5723712500        3.3897652644        4.9659164784
  O         6.9745206456        3.3915374820        8.5323248746
  O         8.4358597966        3.3823563627       12.3161026014
  O         9.3384896113        1.4979798468        1.5447056777
  O         0.4815100457        1.4979276309        4.9643812554
  O         1.8811597106        1.4977911811        8.5292877375
  O         3.2967961259        1.4929766643       12.3117316932
  O         1.9579518173        1.4991473591        2.3148091439
  O         3.3685900086        1.4978508366        5.8777338693
  O         4.8238424151        1.4905389389        9.3900497456
  O         6.2245932624        1.4268633940       12.9472760634
  O         7.0491090953        3.3910552743        2.3205113703
  O         8.5055139416        3.3903056991        5.8773518546
  O         9.9148831427        3.3894911892        9.4182583955
  O         1.1388636306        3.3169448645       13.0028980523
  O         0.5041262309        3.3886875077        0.6241066894
  O         1.9655856824        3.3905529061        4.4061276890
  O         3.3557610765        3.3896153688        7.9081733873
  O         4.6799244697        3.3737394890       11.3044457216
  O         5.6514294140        1.4963477275        0.6203167882
  O         7.0595397391        1.4977978261        4.4062857711
  O         8.4530267214        1.4989835269        7.9026544368
  O         9.8400981904        1.4989898880       11.3900663310
  O         2.7111429625        1.4841842861       -0.0604596596
  O         4.1600706983        1.4978173684        3.4969795311
  O         5.5691011987        1.4986081836        7.0386056158
  O         7.0340718596        1.5019689656       10.6044317282
  O         7.8558813819        3.3751535973       -0.0571330058
  O         9.2535889413        3.3898230969        3.5133872652
  O         0.4258519408        3.3902648765        7.0533904529
  O         1.8793786454        3.3899225590       10.6184239593
  H         3.9945566006        0.0562542207       -0.9826381925
  H         4.9056071318        0.1042415757       13.9340983378
  H         4.5688407757        2.4785941326       -1.4218303979
  O         4.8373792869        3.3992145553       -1.2428090306
  H         9.5597545765        0.5925143287       14.3179956641
  O         9.2526213199        1.5078273148       14.1774756529
  H        10.0765048134        1.9822007213       13.9119159754
  H         4.4715568174        2.8706028641       14.3683625907
  O         4.1871862908        3.7025907392       13.9469595326
  H         9.5807368830        0.6018537173       -1.3599781338
  O         9.9180859339        1.5096768325       -1.2391995099
  H         9.1110998844        2.0115790899       -0.9725251170
 Ti         6.1641708912        7.1786266722        0.7025549770
 Ti         7.4554241758        7.1769547062        4.2866220331
 Ti         8.8402760051        7.1776880898        7.8213853851
 Ti        -0.0175689288        7.1785922782       11.3836808702
 Ti         1.0326663228        5.2841434658        0.7021425815
 Ti         2.3438580393        5.2801016411        4.2634682292
 Ti         3.7124006689        5.2776943930        7.7804279622
 Ti         5.0614240949        5.2545330010       11.2902014126
 Ti         3.8332782573        5.2878107676        1.5200524602
 Ti         5.2093241606        5.2799264334        5.0840914583
 Ti         6.6054695565        5.2779518625        8.6032819559
 Ti         7.9173330429        5.2201442677       12.2040837185
 Ti         8.9376023015        7.1807421471        1.5316557934
 Ti         0.0897785372        7.1756716431        5.0852996326
 Ti         1.4800092307        7.1784880504        8.6068072906
 Ti         2.7756175773        7.1870376747       12.1600779941
  O         4.2427932442        7.1745322520        1.5344155672
  O         5.5729136389        7.1746959993        4.9660004134
  O         6.9748564805        7.1736891696        8.5306537151
  O         8.4192662694        7.1505873137       12.3121159180
  O         9.3388515040        5.2821801499        1.5446407469
  O         0.4817375776        5.2821579429        4.9640665369
  O         1.8807281648        5.2814135691        8.5265550355
  O         3.2736274636        5.2971051228       12.1647025927
  O         1.9573832520        5.2832498149        2.3148290795
  O         3.3674920184        5.2821175240        5.8750365959
  O         4.8140057969        5.2851374742        9.3793018392
  O         6.1387828959        4.9833265870       13.0055973420
  O         7.0489763398        7.1752910021        2.3197249288
  O         8.5065700067        7.1739255144        5.8710024379
  O         9.9136591497        7.1721073921        9.3880263552
  O         1.0822925622        7.1584774222       12.9361494970
  O         0.5043058439        7.1721757626        0.6234495240
  O         1.9654168399        7.1737856103        4.4046803438
  O         3.3559268371        7.1747865236        7.9043673948
  O         4.7525933477        7.1729223651       11.3996317875
  O         5.6513356109        5.2805262839        0.6202327917
  O         7.0594002927        5.2821129327        4.4054625578
  O         8.4499353641        5.2810695208        7.9036339232
  O         9.8164513102        5.2680031665       11.4008004163
  O         2.7103448671        5.2684280421       -0.0599246247
  O         4.1594026399        5.2820138231        3.4961711923
  O         5.5677759332        5.2821547837        7.0356010181
  O         6.9783955970        5.2893684891       10.6277311368
  O         7.8549175197        7.1594634288       -0.0592488967
  O         9.2540597096        7.1741464577        3.5048391584
  O         0.4253545738        7.1745017122        7.0390350973
  O         1.8767025399        7.1792213646       10.5631435226
  H         3.9939241089        3.8378115456       -0.9823501592
  H         5.3274099077        4.3135391444       13.5337787113
  H         4.5684750050        6.2635243806       -1.4235396640
  O         4.8371909138        7.1837259109       -1.2427701474
  H         9.5717491036        4.3821501733       14.3329317578
  O         9.2497711452        5.2902392417       14.1788979999
  H        10.0607328355        5.7746232841       13.8969066985
  H         4.1464337206        6.2289472601       14.4171807891
  O         4.0077159388        7.1675324125       14.1768344282
  H         9.5786612488        4.3847361606       -1.3548417980
  O         9.9178893967        5.2927202119       -1.2391368112
  H         9.1113944336        5.7970777173       -0.9754987964
 Ti         6.1642406076       10.9624716033        0.7026630706
 Ti         7.4551090689       10.9584337520        4.2868004738
 Ti         8.8412449189       10.9592783691        7.8209912523
 Ti         0.0003387297       10.9671816152       11.3843721656
 Ti         1.0360353298        9.0694273900        0.7050480828
 Ti         2.3561798136        9.0667843578        4.2764287940
 Ti         3.7492779735        9.0681521770        7.8219745772
 Ti         5.1470292955        9.0666506996       11.3964365565
 Ti         3.8306259837        9.0732548064        1.5237657093
 Ti         5.1995189141        9.0670386331        5.0994856411
 Ti         6.6017464877        9.0675831143        8.6384863483
 Ti         7.9250327664        9.0611817331       12.2204422411
 Ti         8.9378404604       10.9647892399        1.5319986033
 Ti         0.0904477335       10.9591024792        5.0858215028
 Ti         1.4796785269       10.9587561418        8.6126504480
 Ti         2.7830665172       10.9609364269       12.1994015484
  O         4.2426692548       10.9586125567        1.5347137060
  O         5.5728106834       10.9582693183        4.9663027847
  O         6.9754943161       10.9585262801        8.5300768780
  O         8.4365239929       10.9546319186       12.3119671497
  O         9.3384757270        9.0662451747        1.5441796624
  O         0.4814767268        9.0662751069        4.9637298717
  O         1.8812020591        9.0677242572        8.5267635514
  O         3.2843128222        9.0657182198       12.2426952962
  O         1.9579862954        9.0673707771        2.3149667867
  O         3.3685890519        9.0662863526        5.8788036926
  O         4.8216067283        9.0653312620        9.4025009768
  O         6.2270694835        9.0548337360       12.9551829641
  O         7.0490267856       10.9594451519        2.3199796774
  O         8.5079072336       10.9584799385        5.8718911404
  O         9.9169955389       10.9577461657        9.3888974774
  O         1.0826108717       10.9404828207       12.9482139490
  O         0.5044965392       10.9567094602        0.6237708276
  O         1.9654410594       10.9584492386        4.4045745397
  O         3.3565189361       10.9580439247        7.9054499740
  O         4.7423267711       10.9598040721       11.3894069600
  O         5.6512959206        9.0647314893        0.6202236816
  O         7.0589607885        9.0665555896        4.4063840158
  O         8.4500109218        9.0663711956        7.9020422982
  O         9.8332260869        9.0616101252       11.3886977184
  O         2.7111184215        9.0525549043       -0.0601940240
  O         4.1602323852        9.0661706668        3.4977016013
  O         5.5684620200        9.0663658653        7.0426649570
  O         7.0364075281        9.0668810863       10.6067812612
  O         7.8548846535       10.9438086017       -0.0588614717
  O         9.2541147121       10.9581993368        3.5052816893
  O         0.4292598665       10.9585253869        7.0410697368
  O         1.8825177845       10.9623192637       10.5972143091
  H         3.9937816706        7.6229503334       -0.9828973642
  H         4.9005797574        7.4886508456       13.9223269326
  H         4.5664406942       10.0477598540       -1.4209036984
  O         4.8370830458       10.9679176607       -1.2426181688
  H         9.5603654222        8.1603743208       14.3217914749
  O         9.2523725545        9.0748154733       14.1771834669
  H        10.0733470538        9.5493819717       13.9055539155
  H         4.4037675299       10.0493962394       14.3172805608
  O         4.0882044842       10.9616302908       14.1755717538
  H         9.5816037578        8.1696973504       -1.3606287679
  O         9.9181834098        9.0777165627       -1.2395019271
  H         9.1103486478        9.5791644094       -0.9749023172
