7
Properties=species:S:1:pos:R:3 pbc="F F F"
O        0.00000000       0.00000000       0.11926200
H        0.00000000       0.76323900      -0.47704700
H        0.00000000      -0.76323900      -0.47704700
O        0.00000000      -0.00000000       4.88073800
H        0.00000000      -0.76323900       5.47704700
H        0.00000000       0.76323900       5.47704700
H        0.00000000      -0.00000000       2.50000000
